Version 4
SHEET 1 880 680
WIRE -112 -64 -240 -64
WIRE 0 -64 -112 -64
WIRE 160 -64 64 -64
WIRE -240 -32 -240 -64
WIRE 160 -32 160 -64
WIRE -240 80 -240 48
WIRE -176 80 -240 80
WIRE 160 80 160 48
WIRE 160 80 -176 80
WIRE -240 96 -240 80
WIRE -112 144 -112 -64
WIRE -64 144 -112 144
WIRE 48 144 16 144
WIRE 160 144 112 144
WIRE 160 176 160 144
WIRE -176 288 -176 80
WIRE 160 288 160 256
WIRE 160 288 -176 288
WIRE -112 352 -112 144
WIRE -16 352 -112 352
WIRE 160 352 64 352
WIRE 160 384 160 352
WIRE -176 496 -176 288
WIRE 160 496 160 464
WIRE 160 496 -176 496
FLAG -240 96 0
SYMBOL cap 0 -48 R270
WINDOW 0 32 32 VTop 2
WINDOW 3 0 32 VBottom 2
SYMATTR InstName C1
SYMATTR Value 6.014926µ
SYMBOL res 144 -48 R0
SYMATTR InstName RT
SYMATTR Value 6.3
SYMBOL ind -80 160 R270
WINDOW 0 32 56 VTop 2
WINDOW 3 5 56 VBottom 2
SYMATTR InstName L1
SYMATTR Value 242.522µ
SYMBOL cap 48 160 R270
WINDOW 0 32 32 VTop 2
WINDOW 3 0 32 VBottom 2
SYMATTR InstName C2
SYMATTR Value 38.258340µ
SYMBOL res 144 160 R0
SYMATTR InstName RM
SYMATTR Value 6.4
SYMBOL ind -32 368 R270
WINDOW 0 32 56 VTop 2
WINDOW 3 5 56 VBottom 2
SYMATTR InstName L2
SYMATTR Value 1.420152m
SYMBOL res 144 368 R0
SYMATTR InstName RW
SYMATTR Value 5.8
SYMBOL voltage -240 -48 R0
WINDOW 123 24 124 Left 2
WINDOW 39 0 0 Left 2
SYMATTR Value2 AC 1
SYMATTR InstName Vi
SYMATTR Value SINE(0 120 60)
TEXT -232 528 Left 2 !.ac dec 100 25 25k
